sad/pglib_opf_case4917_goc__sad.m
%%%%%%%%%%%%%%%%%%%%%%%%%%%%%%%%%%%%%%%%%%%%%%%%%%%%%%%%%%%%%%%%%%%%%%%%%%%
%%%%                                                                  %%%%%
%%%%    IEEE PES Power Grid Library - Optimal Power Flow - v20.04     %%%%%
%%%%          (https://github.com/power-grid-lib/pglib-opf)           %%%%%
%%%%             Benchmark Group - Small Angle Difference             %%%%%
%%%%                         12 - July - 2020                         %%%%%
%%%%                                                                  %%%%%
%%%%%%%%%%%%%%%%%%%%%%%%%%%%%%%%%%%%%%%%%%%%%%%%%%%%%%%%%%%%%%%%%%%%%%%%%%%
function mpc = pglib_opf_case4917_goc__sad
mpc.version = '2';
mpc.baseMVA = 100.0;

%% bus data
%	bus_i	type	Pd	Qd	Gs	Bs	area	Vm	Va	baseKV	zone	Vmax	Vmin
mpc.bus = [
	1	 1	 8.252	 -0.234	 0.0	 0.0	 1	    0.99750	    0.00000	 13.0	 1	    1.05000	    0.94500;
	2	 1	 0.0	 0.0	 0.0	 0.0	 1	    0.99750	    0.00000	 13.0	 1	    1.05000	    0.94500;
	3	 1	 0.178	 0.504	 0.0	 0.0	 1	    0.99750	    0.00000	 69.0	 1	    1.05000	    0.94500;
	4	 1	 7.958	 -0.347	 0.0	 0.0	 1	    0.99750	    0.00000	 13.0	 1	    1.05000	    0.94500;
	5	 1	 0.0	 0.0	 0.0	 0.0	 1	    0.99750	    0.00000	 13.0	 1	    1.05000	    0.94500;
	6	 2	 2.551	 3.396	 0.0	 0.0	 1	    0.99750	    0.00000	 69.0	 1	    1.05000	    0.94500;
	7	 1	 6.084	 0.417	 0.0	 0.0	 1	    0.99750	    0.00000	 13.0	 1	    1.05000	    0.94500;
	8	 1	 2.739	 0.495	 0.0	 0.0	 1	    0.99750	    0.00000	 13.0	 1	    1.05000	    0.94500;
	9	 2	 0.0	 0.0	 0.0	 0.0	 1	    0.99750	    0.00000	 69.0	 1	    1.05000	    0.94500;
	10	 1	 1.9	 1.259	 0.0	 0.0	 1	    0.99750	    0.00000	 69.0	 1	    1.05000	    0.94500;
	11	 1	 3.667	 0.729	 0.0	 0.0	 1	    0.99750	    0.00000	 69.0	 1	    1.05000	    0.94500;
	12	 1	 0.0	 0.0	 0.0	 0.0	 1	    0.99750	    0.00000	 69.0	 1	    1.05000	    0.94500;
	13	 1	 0.0	 0.0	 0.0	 0.0	 1	    0.99750	    0.00000	 69.0	 1	    1.05000	    0.94500;
	14	 1	 0.0	 0.0	 0.0	 0.0	 1	    0.99750	    0.00000	 69.0	 1	    1.05000	    0.94500;
	15	 1	 0.0	 0.0	 0.0	 0.0	 1	    0.99750	    0.00000	 69.0	 1	    1.05000	    0.94500;
	16	 2	 0.0	 0.0	 0.0	 0.0	 1	    0.99750	    0.00000	 69.0	 1	    1.05000	    0.94500;
	17	 1	 12.391	 -1.433	 0.0	 0.0	 1	    0.99750	    0.00000	 69.0	 1	    1.05000	    0.94500;
	18	 1	 0.0	 0.0	 0.0	 0.0	 1	    0.99750	    0.00000	 69.0	 1	    1.05000	    0.94500;
	19	 1	 0.0	 0.0	 0.0	 0.0	 1	    0.99750	    0.00000	 69.0	 1	    1.05000	    0.94500;
	20	 1	 6.495	 0.938	 0.0	 0.0	 1	    0.99750	    0.00000	 13.0	 1	    1.05000	    0.94500;
	21	 1	 9.554	 0.399	 0.0	 0.0	 1	    0.99750	    0.00000	 13.0	 1	    1.05000	    0.94500;
	22	 1	 4.059	 0.452	 0.0	 0.0	 1	    0.99750	    0.00000	 13.0	 1	    1.05000	    0.94500;
	23	 1	 0.731	 5.284	 0.0	 6.08	 1	    0.99750	    0.00000	 69.0	 1	    1.05000	    0.94500;
	24	 1	 1.124	 0.894	 0.0	 0.0	 1	    0.99750	    0.00000	 13.0	 1	    1.05000	    0.94500;
	25	 1	 19.216	 -2.484	 0.0	 10.7994369548	 1	    0.99750	    0.00000	 69.0	 1	    1.05000	    0.94500;
	26	 2	 0.0	 0.0	 0.0	 0.0	 1	    0.99750	    0.00000	 69.0	 1	    1.05000	    0.94500;
	27	 1	 8.894	 0.156	 0.0	 0.0	 1	    0.99750	    0.00000	 13.0	 1	    1.05000	    0.94500;
	28	 1	 0.0	 0.0	 0.0	 0.0115112286574	 1	    0.99750	    0.00000	 230.0	 2	    1.05000	    0.94500;
	29	 1	 0.0	 0.0	 0.0	 0.0	 1	    0.99750	    0.00000	 1.0	 2	    1.05000	    0.94500;
	30	 1	 0.0	 0.0	 0.0	 2.58856290847	 1	    0.99750	    0.00000	 115.0	 2	    1.05000	    0.94500;
	31	 1	 -84.536	 19.644	 0.0	 0.0154304188359	 1	    0.99750	    0.00000	 115.0	 2	    1.05000	    0.94500;
	32	 1	 108.917	 51.229	 0.0	 1.9499780274	 1	    0.99750	    0.00000	 115.0	 2	    1.05000	    0.94500;
	33	 1	 0.0	 0.0	 0.0	 0.0	 1	    0.99750	    0.00000	 230.0	 2	    1.05000	    0.94500;
	34	 1	 -141.612	 -0.712	 0.0	 -4.8161904231	 1	    0.99750	    0.00000	 115.0	 2	    1.05000	    0.94500;
	35	 1	 0.0	 0.0	 0.0	 0.00296345705944	 1	    0.99750	    0.00000	 115.0	 2	    1.05000	    0.94500;
	36	 1	 97.168	 -39.905	 0.0	 21.8998089014	 1	    0.99750	    0.00000	 115.0	 2	    1.05000	    0.94500;
	37	 1	 0.0	 0.0	 0.0	 -0.857770246841	 1	    0.99750	    0.00000	 115.0	 2	    1.05000	    0.94500;
	38	 1	 40.769	 5.193	 0.0	 0.0	 1	    0.99750	    0.00000	 115.0	 2	    1.05000	    0.94500;
	39	 1	 20.421	 2.421	 0.0	 2.673	 1	    0.99750	    0.00000	 230.0	 2	    1.05000	    0.94500;
	40	 1	 0.0	 0.0	 0.0	 33.2699471293	 1	    0.99750	    0.00000	 230.0	 2	    1.05000	    0.94500;
	41	 1	 388.332	 -19.047	 0.0	 0.0	 1	    0.99750	    0.00000	 345.0	 2	    1.05000	    0.94500;
	42	 1	 -84.553	 19.644	 0.0	 0.0154249539518	 1	    0.99750	    0.00000	 115.0	 2	    1.05000	    0.94500;
	43	 1	 118.897	 0.163	 0.0	 -17.596	 1	    0.99750	    0.00000	 230.0	 2	    1.05000	    0.94500;
	44	 1	 25.719	 6.8	 0.0	 0.0	 1	    0.99750	    0.00000	 230.0	 2	    1.05000	    0.94500;
	45	 1	 36.719	 2.683	 0.0	 0.0	 1	    0.99750	    0.00000	 230.0	 2	    1.05000	    0.94500;
	46	 2	 0.0	 0.0	 0.0	 0.0	 1	    0.99750	    0.00000	 500.0	 2	    1.05000	    0.94500;
	47	 1	 0.0	 0.0	 0.0	 0.0	 1	    0.99750	    0.00000	 1.0	 2	    1.05000	    0.94500;
	48	 2	 -85.214	 25.688	 0.0	 0.0	 1	    0.99750	    0.00000	 22.8	 2	    1.05000	    0.94500;
	49	 1	 0.0	 0.0	 0.0	 47.499852397	 1	    0.99750	    0.00000	 230.0	 2	    1.05000	    0.94500;
	50	 2	 0.0	 0.0	 0.0	 -109.984	 1	    0.99750	    0.00000	 345.0	 2	    1.05000	    0.94500;
	51	 1	 0.0	 0.0	 0.0	 -0.353698269531	 1	    0.99750	    0.00000	 138.0	 2	    1.05000	    0.94500;
	52	 1	 -95.883	 20.573	 0.0	 0.0	 1	    0.99750	    0.00000	 21.0	 2	    1.05000	    0.94500;
	53	 1	 96.936	 -19.253	 0.0	 3.52997945004	 1	    0.99750	    0.00000	 230.0	 2	    1.05000	    0.94500;
	54	 2	 134.93	 -36.266	 0.0	 0.0	 1	    0.99750	    0.00000	 115.0	 2	    1.05000	    0.94500;
	55	 1	 -193.301	 -6.227	 0.0	 -0.00429687080184	 1	    0.99750	    0.00000	 115.0	 2	    1.05000	    0.94500;
	56	 1	 0.0	 0.0	 0.0	 -3.98369073905	 1	    0.99750	    0.00000	 115.0	 2	    1.05000	    0.94500;
	57	 1	 78.469	 23.127	 0.0	 44.7657810229	 1	    0.99750	    0.00000	 161.0	 2	    1.05000	    0.94500;
	58	 1	 0.0	 0.0	 0.0	 -0.868921177249	 1	    0.99750	    0.00000	 230.0	 2	    1.05000	    0.94500;
	59	 2	 60.538	 15.258	 0.0	 0.0	 1	    0.99750	    0.00000	 161.0	 2	    1.05000	    0.94500;
	60	 1	 -43.829	 24.646	 0.0	 -0.00134789283948	 1	    0.99750	    0.00000	 115.0	 2	    1.05000	    0.94500;
	61	 1	 93.448	 72.654	 0.0	 117.171948383	 1	    0.99750	    0.00000	 115.0	 2	    1.05000	    0.94500;
	62	 1	 27.521	 4.794	 0.0	 0.0	 1	    0.99750	    0.00000	 230.0	 2	    1.05000	    0.94500;
	63	 1	 0.0	 0.0	 0.0	 -2.39870628637	 1	    0.99750	    0.00000	 138.0	 2	    1.05000	    0.94500;
	64	 1	 0.0	 0.0	 0.0	 -0.0158257362728	 1	    0.99750	    0.00000	 230.0	 2	    1.05000	    0.94500;
	65	 1	 0.0	 0.0	 0.0	 -0.00543947763116	 1	    0.99750	    0.00000	 230.0	 2	    1.05000	    0.94500;
	66	 1	 0.0	 0.0	 0.0	 16.9282887087	 1	    0.99750	    0.00000	 230.0	 2	    1.05000	    0.94500;
	67	 1	 0.0	 0.0	 0.0	 10.73167357	 1	    0.99750	    0.00000	 230.0	 2	    1.05000	    0.94500;
	68	 1	 0.0	 0.0	 0.0	 -0.0350512421951	 1	    0.99750	    0.00000	 161.0	 2	    1.05000	    0.94500;
	69	 2	 32.553	 5.28	 0.0	 -47.238	 1	    0.99750	    0.00000	 230.0	 2	    1.05000	    0.94500;
	70	 2	 0.0	 0.0	 0.0	 0.0	 1	    0.99750	    0.00000	 230.0	 2	    1.05000	    0.94500;
	71	 1	 -141.603	 -1.198	 0.0	 -5.30192331945	 1	    0.99750	    0.00000	 115.0	 2	    1.05000	    0.94500;
	72	 1	 0.0	 0.0	 0.0	 0.0	 1	    0.99750	    0.00000	 230.0	 2	    1.05000	    0.94500;
	73	 2	 0.0	 0.0	 0.0	 17.995	 1	    0.99750	    0.00000	 1.0	 2	    1.05000	    0.94500;
	74	 1	 136.474	 -31.264	 0.0	 12.4398188082	 1	    0.99750	    0.00000	 115.0	 2	    1.05000	    0.94500;
	75	 1	 0.0	 0.0	 0.0	 0.0	 1	    0.99750	    0.00000	 230.0	 2	    1.05000	    0.94500;
	76	 1	 30.082	 3.7	 0.0	 0.00280008871111	 1	    0.99750	    0.00000	 115.0	 2	    1.05000	    0.94500;
	77	 1	 21.41	 -4.733	 0.0	 6.63977873646	 1	    0.99750	    0.00000	 230.0	 2	    1.05000	    0.94500;
	78	 2	 0.0	 0.0	 0.0	 12.364	 1	    0.99750	    0.00000	 1.0	 2	    1.05000	    0.94500;
	79	 1	 20.804	 2.371	 0.0	 0.0	 1	    0.99750	    0.00000	 230.0	 2	    1.05000	    0.94500;
	80	 1	 0.0	 0.0	 0.0	 0.0	 1	    0.99750	    0.00000	 500.0	 2	    1.05000	    0.94500;
	81	 1	 183.238	 11.185	 0.0	 0.0	 1	    0.99750	    0.00000	 230.0	 2	    1.05000	    0.94500;
	82	 1	 23.025	 1.607	 0.0	 0.0	 1	    0.99750	    0.00000	 35.0	 3	    1.05000	    0.94500;
	83	 1	 2.141	 -2.058	 0.0	 0.0	 1	    0.99750	    0.00000	 115.0	 3	    1.05000	    0.94500;
	84	 1	 16.334	 0.052	 0.0	 0.0	 1	    0.99750	    0.00000	 35.0	 3	    1.05000	    0.94500;
	85	 1	 3.14	 2.692	 0.0	 0.0	 1	    0.99750	    0.00000	 115.0	 3	    1.05000	    0.94500;
	86	 1	 45.595	 37.117	 0.0	 0.0	 1	    0.99750	    0.00000	 4.0	 3	    1.05000	    0.94500;
	87	 1	 19.76	 0.747	 0.0	 0.0	 1	    0.99750	    0.00000	 35.0	 3	    1.05000	    0.94500;
	88	 1	 37.727	 2.102	 0.0	 0.0	 1	    0.99750	    0.00000	 22.0	 3	    1.05000	    0.94500;
	89	 2	 0.0	 0.0	 0.0	 0.0	 1	    0.99750	    0.00000	 13.0	 3	    1.05000	    0.94500;
	90	 2	 2.792	 0.13	 0.0	 -4.777	 1	    0.99750	    0.00000	 115.0	 3	    1.05000	    0.94500;
	91	 1	 0.0	 0.0	 0.0	 0.0	 1	    0.99750	    0.00000	 230.0	 3	    1.05000	    0.94500;
	92	 1	 0.0	 0.0	 0.0	 33.9989875512	 1	    0.99750	    0.00000	 115.0	 3	    1.05000	    0.94500;
	93	 1	 9.724	 -2.822	 0.0	 0.0	 1	    0.99750	    0.00000	 13.0	 3	    1.05000	    0.94500;
	94	 1	 0.0	 0.0	 0.0	 0.0	 1	    0.99750	    0.00000	 230.0	 3	    1.05000	    0.94500;
	95	 1	 23.498	 1.954	 0.0	 0.0	 1	    0.99750	    0.00000	 35.0	 3	    1.05000	    0.94500;
	96	 1	 0.0	 0.0	 0.0	 0.0	 1	    0.99750	    0.00000	 115.0	 3	    1.05000	    0.94500;
	97	 1	 0.0	 0.0	 0.0	 0.0	 1	    0.99750	    0.00000	 230.0	 3	    1.05000	    0.94500;
	98	 1	 0.0	 0.0	 0.0	 0.0	 1	    0.99750	    0.00000	 230.0	 3	    1.05000	    0.94500;
	99	 1	 13.426	 3.187	 0.0	 0.0	 1	    0.99750	    0.00000	 35.0	 3	    1.05000	    0.94500;
	100	 1	 14.3	 -0.434	 0.0	 0.0	 1	    0.99750	    0.00000	 35.0	 3	    1.05000	    0.94500;
	101	 1	 1.418	 -0.052	 0.0	 0.0	 1	    0.99750	    0.00000	 115.0	 3	    1.05000	    0.94500;
	102	 1	 0.0	 0.0	 0.0	 0.0	 1	    0.99750	    0.00000	 20.0	 3	    1.05000	    0.94500;
	103	 1	 7.868	 2.171	 0.0	 0.0	 1	    0.99750	    0.00000	 35.0	 3	    1.05000	    0.94500;
	104	 1	 8.885	 -3.317	 0.0	 0.0	 1	    0.99750	    0.00000	 35.0	 3	    1.05000	    0.94500;
	105	 1	 29.181	 -1.893	 0.0	 0.0	 1	    0.99750	    0.00000	 35.0	 3	    1.05000	    0.94500;
	106	 1	 11.517	 1.476	 0.0	 0.0	 1	    0.99750	    0.00000	 35.0	 3	    1.05000	    0.94500;
	107	 1	 0.0	 0.0	 0.0	 0.0	 1	    0.99750	    0.00000	 115.0	 3	    1.05000	    0.94500;
	108	 1	 24.14	 4.446	 0.0	 0.0	 1	    0.99750	    0.00000	 35.0	 3	    1.05000	    0.94500;
	109	 1	 17.592	 4.846	 0.0	 0.0	 1	    0.99750	    0.00000	 230.0	 3	    1.05000	    0.94500;
	110	 1	 38.762	 19.145	 0.0	 0.0	 1	    0.99750	    0.00000	 115.0	 3	    1.05000	    0.94500;
	111	 1	 0.0	 0.0	 0.0	 0.0	 1	    0.99750	    0.00000	 500.0	 3	    1.05000	    0.94500;
	112	 1	 29.377	 0.226	 0.0	 0.0	 1	    0.99750	    0.00000	 35.0	 3	    1.05000	    0.94500;
	113	 1	 -1.338	 -0.608	 0.0	 0.0	 1	    0.99750	    0.00000	 7.0	 3	    1.05000	    0.94500;
	114	 1	 8.618	 4.776	 0.0	 0.0	 1	    0.99750	    0.00000	 13.0	 3	    1.05000	    0.94500;
	115	 1	 0.0	 0.0	 0.0	 0.0	 1	    0.99750	    0.00000	 115.0	 3	    1.05000	    0.94500;
	116	 1	 9.394	 -0.842	 0.0	 0.0	 1	    0.99750	    0.00000	 13.0	 3	    1.05000	    0.94500;
	117	 1	 2.302	 4.829	 0.0	 0.0	 1	    0.99750	    0.00000	 13.0	 3	    1.05000	    0.94500;
	118	 1	 0.0	 0.0	 0.0	 0.0	 1	    0.99750	    0.00000	 500.0	 3	    1.05000	    0.94500;
	119	 1	 0.0	 0.0	 0.0	 0.0	 1	    0.99750	    0.00000	 115.0	 3	    1.05000	    0.94500;
	120	 1	 3.354	 1.685	 0.0	 0.0	 1	    0.99750	    0.00000	 4.0	 3	    1.05000	    0.94500;
	121	 1	 0.0	 0.0	 0.0	 0.0	 1	    0.99750	    0.00000	 230.0	 3	    1.05000	    0.94500;
	122	 1	 40.724	 33.826	 0.0	 0.0	 1	    0.99750	    0.00000	 22.0	 3	    1.05000	    0.94500;
	123	 1	 15.059	 -2.128	 0.0	 0.0	 1	    0.99750	    0.00000	 13.0	 3	    1.05000	    0.94500;
	124	 1	 0.0	 0.0	 0.0	 0.0	 1	    0.99750	    0.00000	 230.0	 3	    1.05000	    0.94500;
	125	 1	 0.0	 0.0	 0.0	 24.3999520148	 1	    0.99750	    0.00000	 115.0	 3	    1.05000	    0.94500;
	126	 1	 15.264	 26.54	 0.0	 0.0	 1	    0.99750	    0.00000	 115.0	 3	    1.05000	    0.94500;
	127	 1	 9.456	 0.13	 0.0	 0.0	 1	    0.99750	    0.00000	 13.0	 3	    1.05000	    0.94500;
	128	 1	 0.0	 0.0	 0.0	 0.0	 1	    0.99750	    0.00000	 14.0	 3	    1.05000	    0.94500;
	129	 2	 6.066	 3.378	 0.0	 -8.836	 1	    0.99750	    0.00000	 115.0	 3	    1.05000	    0.94500;
	130	 1	 587.525	 75.909	 0.0	 0.0	 1	    0.99750	    0.00000	 500.0	 3	    1.05000	    0.94500;
	131	 1	 49.485	 6.435	 0.0	 0.0	 1	    0.99750	    0.00000	 22.0	 3	    1.05000	    0.94500;
	132	 1	 0.0	 0.0	 0.0	 0.0	 1	    0.99750	    0.00000	 230.0	 3	    1.05000	    0.94500;
	133	 1	 12.097	 0.703	 0.0	 0.0	 1	    0.99750	    0.00000	 22.0	 3	    1.05000	    0.94500;
	134	 1	 0.0	 0.0	 0.0	 0.0	 1	    0.99750	    0.00000	 115.0	 3	    1.05000	    0.94500;
	135	 1	 9.117	 -0.834	 0.0	 0.0	 1	    0.99750	    0.00000	 35.0	 3	    1.05000	    0.94500;
	136	 1	 0.0	 0.0	 0.0	 0.0	 1	    0.99750	    0.00000	 230.0	 3	    1.05000	    0.94500;
	137	 1	 0.0	 0.0	 0.0	 0.0	 1	    0.99750	    0.00000	 14.0	 3	    1.05000	    0.94500;
	138	 1	 7.895	 -3.769	 0.0	 0.0	 1	    0.99750	    0.00000	 13.0	 3	    1.05000	    0.94500;
	139	 1	 16.557	 -0.287	 0.0	 0.0	 1	    0.99750	    0.00000	 35.0	 3	    1.05000	    0.94500;
	140	 1	 0.0	 0.0	 0.0	 0.0	 1	    0.99750	    0.00000	 20.0	 3	    1.05000	    0.94500;
	141	 1	 0.0	 0.0	 0.0	 0.0	 1	    0.99750	    0.00000	 230.0	 3	    1.05000	    0.94500;
	142	 1	 0.0	 0.0	 0.0	 0.0	 1	    0.99750	    0.00000	 230.0	 3	    1.05000	    0.94500;
	143	 1	 11.811	 8.181	 0.0	 0.0	 1	    0.99750	    0.00000	 4.0	 3	    1.05000	    0.94500;
	144	 1	 6.37	 0.591	 0.0	 0.0	 1	    0.99750	    0.00000	 35.0	 3	    1.05000	    0.94500;
	145	 1	 0.0	 0.0	 0.0	 0.0	 1	    0.99750	    0.00000	 14.0	 3	    1.05000	    0.94500;
	146	 2	 0.0	 0.0	 0.0	 -76.414	 1	    0.99750	    0.00000	 500.0	 3	    1.05000	    0.94500;
	147	 1	 0.0	 0.0	 0.0	 0.0	 1	    0.99750	    0.00000	 230.0	 3	    1.05000	    0.94500;
	148	 1	 0.0	 0.0	 0.0	 0.0	 1	    0.99750	    0.00000	 230.0	 3	    1.05000	    0.94500;
	149	 1	 10.339	 1.72	 0.0	 0.0	 1	    0.99750	    0.00000	 13.0	 3	    1.05000	    0.94500;
	150	 1	 0.0	 0.0	 0.0	 5.02090361698	 1	    0.99750	    0.00000	 115.0	 3	    1.05000	    0.94500;
	151	 1	 0.0	 0.0	 0.0	 0.0	 1	    0.99750	    0.00000	 230.0	 3	    1.05000	    0.94500;
	152	 1	 0.0	 0.0	 0.0	 0.0	 1	    0.99750	    0.00000	 230.0	 3	    1.05000	    0.94500;
	153	 1	 16.977	 -3.335	 0.0	 0.0	 1	    0.99750	    0.00000	 35.0	 3	    1.05000	    0.94500;
	154	 1	 20.501	 0.365	 0.0	 0.0	 1	    0.99750	    0.00000	 35.0	 3	    1.05000	    0.94500;
	155	 1	 0.0	 0.0	 0.0	 0.0	 1	    0.99750	    0.00000	 230.0	 3	    1.05000	    0.94500;
	156	 1	 0.0	 0.0	 0.0	 0.0	 1	    0.99750	    0.00000	 500.0	 3	    1.05000	    0.94500;
	157	 1	 3.979	 -2.084	 0.0	 0.0	 1	    0.99750	    0.00000	 35.0	 3	    1.05000	    0.94500;
	158	 1	 13.06	 1.459	 0.0	 0.0	 1	    0.99750	    0.00000	 35.0	 3	    1.05000	    0.94500;
	159	 1	 3.738	 2.18	 0.0	 0.0	 1	    0.99750	    0.00000	 36.5	 3	    1.05000	    0.94500;
	160	 1	 10.768	 1.659	 0.0	 0.0	 1	    0.99750	    0.00000	 34.5	 3	    1.05000	    0.94500;
	161	 1	 14.131	 2.961	 0.0	 0.0	 1	    0.99750	    0.00000	 35.0	 3	    1.05000	    0.94500;
	162	 1	 8.386	 1.042	 0.0	 0.0	 1	    0.99750	    0.00000	 13.0	 3	    1.05000	    0.94500;
	163	 2	 23.801	 54.442	 0.0	 0.0	 1	    0.99750	    0.00000	 13.0	 3	    1.05000	    0.94500;
	164	 1	 0.0	 0.0	 0.0	 0.0	 1	    0.99750	    0.00000	 115.0	 3	    1.05000	    0.94500;
	165	 1	 0.0	 0.0	 0.0	 0.0	 1	    0.99750	    0.00000	 500.0	 3	    1.05000	    0.94500;
	166	 1	 0.0	 0.0	 0.0	 0.0	 1	    0.99750	    0.00000	 500.0	 3	    1.05000	    0.94500;
	167	 1	 0.0	 0.0	 0.0	 0.0	 1	    0.99750	    0.00000	 230.0	 3	    1.05000	    0.94500;
	168	 1	 0.0	 0.0	 0.0	 0.0	 1	    0.99750	    0.00000	 230.0	 3	    1.05000	    0.94500;
	169	 1	 29.653	 -0.86	 0.0	 0.0	 1	    0.99750	    0.00000	 35.0	 3	    1.05000	    0.94500;
	170	 1	 15.585	 -6.314	 0.0	 0.0	 1	    0.99750	    0.00000	 230.0	 3	    1.05000	    0.94500;
	171	 1	 27.905	 7.833	 0.0	 0.0	 1	    0.99750	    0.00000	 35.0	 3	    1.05000	    0.94500;
	172	 1	 0.0	 0.0	 0.0	 0.0	 1	    0.99750	    0.00000	 115.0	 3	    1.05000	    0.94500;
	173	 1	 0.0	 0.0	 0.0	 0.0	 1	    0.99750	    0.00000	 230.0	 3	    1.05000	    0.94500;
	174	 1	 13.979	 2.345	 0.0	 0.0	 1	    0.99750	    0.00000	 13.0	 3	    1.05000	    0.94500;
	175	 1	 0.0	 0.0	 0.0	 0.0	 1	    0.99750	    0.00000	 230.0	 3	    1.05000	    0.94500;
	176	 1	 10.973	 1.007	 0.0	 0.0	 1	    0.99750	    0.00000	 35.0	 3	    1.05000	    0.94500;
	177	 1	 0.0	 0.0	 0.0	 0.0	 1	    0.99750	    0.00000	 230.0	 3	    1.05000	    0.94500;
	178	 1	 8.689	 5.558	 0.0	 0.0	 1	    0.99750	    0.00000	 35.0	 3	    1.05000	    0.94500;
	179	 1	 12.775	 -0.365	 0.0	 0.0	 1	    0.99750	    0.00000	 35.0	 3	    1.05000	    0.94500;
	180	 1	 19.492	 -1.746	 0.0	 0.0	 1	    0.99750	    0.00000	 35.0	 3	    1.05000	    0.94500;
	181	 1	 0.0	 0.0	 0.0	 0.0	 1	    0.99750	    0.00000	 230.0	 3	    1.05000	    0.94500;
	182	 1	 0.0	 0.0	 0.0	 0.0	 1	    0.99750	    0.00000	 115.0	 3	    1.05000	    0.94500;
	183	 2	 106.321	 10.986	 0.0	 0.0	 1	    0.99750	    0.00000	 230.0	 3	    1.05000	    0.94500;
	184	 1	 0.0	 0.0	 0.0	 0.0	 1	    0.99750	    0.00000	 500.0	 3	    1.05000	    0.94500;
	185	 1	 0.0	 0.0	 0.0	 0.0	 1	    0.99750	    0.00000	 230.0	 3	    1.05000	    0.94500;
	186	 1	 13.765	 1.346	 0.0	 0.0	 1	    0.99750	    0.00000	 35.0	 3	    1.05000	    0.94500;
	187	 1	 0.0	 0.0	 0.0	 0.0	 1	    0.99750	    0.00000	 230.0	 3	    1.05000	    0.94500;
	188	 1	 0.0	 0.0	 0.0	 0.0	 1	    0.99750	    0.00000	 115.0	 3	    1.05000	    0.94500;
	189	 2	 50.573	 0.009	 0.0	 0.0	 1	    0.99750	    0.00000	 35.0	 3	    1.05000	    0.94500;
	190	 1	 5.362	 -2.518	 0.0	 0.0	 1	    0.99750	    0.00000	 13.0	 3	    1.05000	    0.94500;
	191	 1	 7.601	 -1.98	 0.0	 0.0	 1	    0.99750	    0.00000	 13.0	 3	    1.05000	    0.94500;
	192	 1	 4.559	 0.929	 0.0	 0.0	 1	    0.99750	    0.00000	 13.0	 3	    1.05000	    0.94500;
	193	 1	 0.0	 0.0	 0.0	 0.0	 1	    0.99750	    0.00000	 14.0	 3	    1.05000	    0.94500;
	194	 2	 0.0	 0.0	 0.0	 0.0	 1	    0.99750	    0.00000	 13.0	 3	    1.05000	    0.94500;
	195	 1	 11.223	 -1.32	 0.0	 0.0	 1	    0.99750	    0.00000	 35.0	 3	    1.05000	    0.94500;
	196	 1	 5.852	 3.83	 0.0	 0.0	 1	    0.99750	    0.00000	 13.0	 3	    1.05000	    0.94500;
	197	 1	 23.311	 1.277	 0.0	 0.0	 1	    0.99750	    0.00000	 35.0	 3	    1.05000	    0.94500;
	198	 1	 0.0	 0.0	 0.0	 0.0	 1	    0.99750	    0.00000	 115.0	 3	    1.05000	    0.94500;
	199	 1	 0.0	 0.0	 0.0	 0.0	 1	    0.99750	    0.00000	 115.0	 3	    1.05000	    0.94500;
	200	 1	 7.868	 0.087	 0.0	 0.00996251223203	 1	    0.99750	    0.00000	 13.2	 3	    1.05000	    0.94500;
...
];

%% generator data
%	bus	Pg	Qg	Qmax	Qmin	Vg	mBase	status	Pmax	Pmin
mpc.gen = [
	2	 0.0	 0.0	 21.136	 -21.136	 0.9975	 71.2	 0	 67.941	 42.75;
	5	 0.0	 0.0	 15.15	 -9.9	 0.9975	 30.11	 0	 154.412	 25.795;
	6	 807.4385	 0.0	 550.0	 -550.0	 0.9975	 100.0	 1	 1600.0	 14.877;
	9	 806.771	 0.0	 550.0	 -550.0	 0.9975	 100.0	 1	 1600.0	 13.542;
	16	 801.0	 0.0	 550.0	 -550.0	 0.9975	 100.0	 1	 1600.0	 2.0;
	23	 0.0	 0.0	 7.686	 -2.025	 0.9975	 100.0	 0	 24.706	 2.0;
	26	 801.1285	 0.0	 550.0	 -550.0	 0.9975	 100.0	 1	 1600.0	 2.257;
	43	 0.0	 0.0	 9.607	 -9.607	 0.9975	 100.0	 0	 30.882	 2.0;
	46	 21.0	 0.0	 600.0	 -600.0	 0.9975	 2300.0	 1	 40.0	 2.0;
	48	 21.0	 30.2505	 216.361	 -155.86	 0.9975	 100.0	 1	 40.0	 2.0;
	50	 179.7045	 0.0	 33.333	 -33.333	 0.9975	 100.0	 1	 357.409	 2.0;
	52	 0.0	 0.0	 139.885	 -115.13	 0.9975	 100.0	 0	 449.647	 22.482;
	54	 829.26	 0.0	 550.0	 -550.0	 0.9975	 100.0	 1	 1600.0	 58.52;
	59	 942.1765	 0.0	 500.0	 -500.0	 0.9975	 1600.0	 1	 1882.353	 2.0;
	69	 43.874	 0.0	 26.676	 -26.676	 0.9975	 100.0	 1	 85.748	 2.0;
	70	 21.0	 0.0	 36.6	 -36.6	 0.9975	 100.0	 1	 40.0	 2.0;
	73	 108.651	 0.0	 33.333	 -33.333	 0.9975	 100.0	 1	 215.302	 2.0;
	78	 76.24	 0.0	 33.333	 -33.333	 0.9975	 100.0	 1	 150.48	 2.0;
	89	 376.9155	 0.0	 134.667	 -134.667	 0.9975	 804.0	 1	 689.706	 64.125;
	90	 22.7085	 0.0	 13.507	 -13.507	 0.9975	 100.0	 1	 43.417	 2.0;
	102	 0.0	 0.0	 61.104	 -61.104	 0.9975	 200.54	 0	 196.412	 85.5;
	122	 0.0	 0.0	 291.77	 -195.238	 0.9975	 1200.0	 0	 1464.327	 897.75;
	128	 0.0	 0.0	 31.567	 -31.567	 0.9975	 104.0	 0	 101.471	 71.25;
	129	 16.711	 0.0	 9.775	 -9.775	 0.9975	 100.0	 1	 31.422	 2.0;
	137	 0.0	 0.0	 22.5	 -22.5	 0.9975	 67.5	 0	 327.059	 16.353;
	137	 0.0	 0.0	 22.194	 -22.194	 0.9975	 67.5	 0	 71.341	 14.25;
	140	 0.0	 0.0	 286.303	 -99.0	 0.9975	 848.0	 0	 920.294	 9.5;
	145	 0.0	 0.0	 56.492	 -56.492	 0.9975	 234.0	 0	 181.588	 138.7;
	146	 21.0	 0.0	 33.333	 -33.333	 0.9975	 100.0	 1	 40.0	 2.0;
	163	 29.479	 0.0	 15.047	 -15.047	 0.9975	 100.0	 1	 56.54	 2.418;
	163	 0.0	 0.0	 33.333	 -33.333	 0.9975	 100.0	 0	 301.177	 15.059;
	183	 840.0	 0.0	 550.0	 -550.0	 0.9975	 100.0	 1	 1600.0	 80.0;
	189	 169.421	 0.0	 104.31	 -104.31	 0.9975	 100.0	 1	 335.294	 3.548;
	193	 0.0	 0.0	 31.567	 -31.567	 0.9975	 104.0	 0	 101.471	 71.25;
	194	 376.9155	 0.0	 134.667	 -134.667	 0.9975	 704.0	 1	 689.706	 64.125;
	218	 0.0	 0.0	 39.583	 -39.583	 0.9975	 160.0	 0	 127.235	 96.9;
	218	 0.0	 0.0	 39.583	 -39.583	 0.9975	 160.0	 0	 127.235	 96.9;
	218	 0.0	 0.0	 39.583	 -39.583	 0.9975	 160.0	 0	 127.235	 96.9;
	219	 21.0	 0.0	 600.0	 -600.0	 0.9975	 2000.0	 1	 40.0	 2.0;
	219	 21.0	 0.0	 600.0	 -600.0	 0.9975	 2000.0	 1	 40.0	 2.0;
	223	 0.0	 0.0	 197.613	 -137.41	 0.9975	 1055.0	 0	 635.206	 31.76;
	227	 376.9155	 0.0	 134.667	 -134.667	 0.9975	 704.0	 1	 689.706	 64.125;
	238	 1180.703	 121.2335	 437.88	 -195.413	 0.9975	 1200.0	 1	 1462.706	 898.7;
	247	 0.0	 0.0	 17.31	 -10.61	 0.9975	 25.0	 0	 302.353	 15.118;
	247	 0.0	 0.0	 17.31	 -10.61	 0.9975	 25.0	 0	 315.294	 15.765;
	247	 0.0	 0.0	 17.31	 -10.61	 0.9975	 25.0	 0	 343.529	 8.24;
	263	 0.0	 0.0	 62.97	 -67.458	 0.9975	 198.9	 0	 216.838	 9.5;
	267	 0.0	 0.0	 33.333	 -33.333	 0.9975	 100.0	 0	 338.823	 16.941;
	282	 406.294	 0.0	 166.4	 -166.4	 0.9975	 800.0	 1	 810.588	 2.0;
	282	 378.9785	 0.0	 200.59	 -200.59	 0.9975	 800.0	 1	 743.035	 14.922;
	289	 0.0	 0.0	 3.883	 -3.883	 0.9975	 100.0	 0	 12.482	 2.0;
	298	 0.0	 0.0	 59.951	 -59.951	 0.9975	 226.0	 0	 192.706	 147.25;
	328	 21.0	 0.0	 15.415	 -15.415	 0.9975	 100.0	 1	 40.0	 2.0;
	336	 97.397	 0.0	 57.645	 -57.645	 0.9975	 198.9	 1	 185.294	 9.5;
	337	 0.0	 0.0	 16.909	 -16.909	 0.9975	 57.87	 0	 54.353	 11.4;
	339	 176.6475	 -0.775	 71.77	 -73.32	 0.9975	 88.24	 1	 336.471	 16.824;
	339	 0.0	 0.0	 71.77	 -73.32	 0.9975	 131.6	 0	 327.059	 16.353;
	339	 0.0	 0.0	 42.287	 -42.287	 0.9975	 131.6	 0	 135.926	 60.48;
	340	 0.0	 0.0	 33.333	 -33.333	 0.9975	 100.0	 0	 340.0	 17.0;
	340	 0.0	 0.0	 33.333	 -33.333	 0.9975	 100.0	 0	 348.235	 17.412;
	340	 0.0	 0.0	 33.333	 -33.333	 0.9975	 100.0	 0	 302.353	 15.118;
	346	 21.0	 0.0	 36.6	 -36.6	 0.9975	 100.0	 1	 40.0	 2.0;
	351	 0.0	 0.0	 92.232	 -92.232	 0.9975	 100.0	 0	 296.471	 14.824;
	370	 0.0	 0.0	 66.059	 -44.625	 0.9975	 181.5	 0	 212.339	 10.0;
	371	 0.0	 0.0	 141.74	 -90.67	 0.9975	 384.0	 0	 518.486	 285.0;
	387	 0.0	 0.0	 6.149	 -6.149	 0.9975	 100.0	 0	 19.765	 4.75;
	388	 173.5	 17.2125	 78.975	 -44.55	 0.9975	 82.78	 1	 296.667	 50.333;
	416	 0.0	 0.0	 14.603	 -14.603	 0.9975	 54.4	 0	 46.941	 2.347;
	419	 840.0	 0.0	 550.0	 -550.0	 0.9975	 100.0	 1	 1600.0	 80.0;
	424	 0.0	 0.0	 78.397	 -42.075	 0.9975	 82.78	 0	 252.0	 50.108;
	426	 0.0	 0.0	 33.333	 -33.333	 0.9975	 100.0	 0	 304.706	 15.235;
	432	 0.0	 0.0	 63.41	 -63.41	 0.9975	 203.25	 0	 203.824	 50.54;
	444	 153.6355	 0.0	 92.232	 -92.232	 0.9975	 100.0	 1	 296.471	 10.8;
	447	 21.0	 0.0	 13.21	 -13.21	 0.9975	 100.0	 1	 40.0	 2.0;
	466	 803.7885	 0.0	 550.0	 -550.0	 0.9975	 100.0	 1	 1600.0	 7.577;
	483	 0.0	 0.0	 63.025	 -63.025	 0.9975	 218.0	 0	 202.588	 85.5;
	487	 0.0	 0.0	 37.471	 -37.471	 0.9975	 132.35	 0	 120.447	 33.25;
	488	 0.0	 0.0	 33.333	 -33.333	 0.9975	 100.0	 0	 329.412	 16.471;
	489	 21.0	 0.0	 19.461	 -19.461	 0.9975	 100.0	 1	 40.0	 2.0;
	491	 0.0	 0.0	 33.333	 -33.333	 0.9975	 100.0	 0	 303.529	 15.176;
	491	 0.0	 0.0	 33.333	 -33.333	 0.9975	 100.0	 0	 317.647	 15.882;
	499	 0.0	 0.0	 105.513	 -105.513	 0.9975	 515.0	 0	 339.162	 180.5;
	512	 840.0	 0.0	 550.0	 -550.0	 0.9975	 100.0	 1	 1600.0	 80.0;
	514	 21.0	 0.0	 33.333	 -33.333	 0.9975	 100.0	 1	 40.0	 2.0;
	515	 376.9155	 0.0	 134.667	 -134.667	 0.9975	 804.0	 1	 689.706	 64.125;
	521	 0.0	 0.0	 96.624	 -96.624	 0.9975	 100.0	 0	 310.588	 4.15;
	524	 0.0	 0.0	 67.22	 -44.587	 0.9975	 181.5	 0	 216.073	 96.9;
	529	 0.0	 0.0	 62.641	 -62.641	 0.9975	 200.54	 0	 201.353	 85.5;
	546	 0.0	 0.0	 31.567	 -31.567	 0.9975	 104.0	 0	 101.471	 71.25;
	558	 21.0	 0.0	 33.333	 -33.333	 0.9975	 100.0	 1	 40.0	 2.0;
	559	 21.0	 0.0	 217.129	 -217.129	 0.9975	 1055.0	 1	 40.0	 2.0;
	562	 0.0	 0.0	 22.5	 -22.5	 0.9975	 67.5	 0	 352.941	 17.647;
	562	 0.0	 0.0	 17.103	 -17.103	 0.9975	 67.5	 0	 54.976	 26.13;
	570	 21.0	 0.0	 27.586	 -27.586	 0.9975	 100.0	 1	 40.0	 2.0;
	571	 0.0	 0.0	 98.454	 -98.454	 0.9975	 100.0	 0	 316.471	 4.917;
	575	 161.206	 3.175	 70.7	 -64.35	 0.9975	 100.0	 1	 307.059	 15.353;
	588	 0.0	 0.0	 56.492	 -56.492	 0.9975	 234.0	 0	 181.588	 138.7;
	610	 0.0	 0.0	 18.007	 -18.007	 0.9975	 100.0	 0	 57.882	 34.2;
	617	 0.0	 0.0	 59.951	 -59.951	 0.9975	 226.0	 0	 192.706	 147.25;
	622	 0.0	 0.0	 58.1	 -98.088	 0.9975	 120.0	 0	 315.294	 15.765;
	622	 180.3525	 -24.386	 58.1	 -106.872	 0.9975	 120.0	 1	 343.529	 17.176;
	622	 153.2885	 -17.798	 58.1	 -93.696	 0.9975	 147.0	 1	 301.177	 5.4;
	622	 0.0	 0.0	 58.1	 -98.088	 0.9975	 120.0	 0	 315.294	 15.765;
	622	 163.4955	 -20.177	 58.1	 -98.454	 0.9975	 120.0	 1	 316.471	 10.52;
	622	 0.0	 0.0	 54.232	 -54.232	 0.9975	 147.0	 0	 174.324	 79.2;
	635	 176.382	 29.796	 108.702	 -49.11	 0.9975	 119.2	 1	 349.412	 3.352;
	635	 0.0	 0.0	 106.506	 -49.11	 0.9975	 119.2	 0	 342.353	 9.14;
	635	 0.0	 0.0	 100.284	 -49.11	 0.9975	 119.2	 0	 322.353	 16.118;
	635	 0.0	 0.0	 32.263	 -32.263	 0.9975	 115.0	 0	 103.706	 55.867;
	639	 806.7105	 0.0	 550.0	 -550.0	 0.9975	 100.0	 1	 1600.0	 13.421;
	651	 21.0	 0.0	 33.333	 -33.333	 0.9975	 100.0	 1	 40.0	 2.0;
	659	 0.0	 0.0	 22.5	 -22.5	 0.9975	 67.5	 0	 348.235	 17.412;
	659	 0.0	 0.0	 22.099	 -22.099	 0.9975	 67.5	 0	 71.035	 23.75;
	665	 0.0	 0.0	 33.333	 -33.333	 0.9975	 100.0	 0	 336.471	 16.824;
	665	 0.0	 0.0	 33.333	 -33.333	 0.9975	 100.0	 0	 314.118	 15.706;
	666	 0.0	 0.0	 31.567	 -31.567	 0.9975	 104.0	 0	 101.471	 71.25;
	674	 0.0	 0.0	 33.333	 -33.333	 0.9975	 100.0	 0	 340.0	 17.0;
	684	 0.0	 0.0	 98.088	 -0.375	 0.9975	 100.0	 0	 315.294	 3.667;
	685	 828.724	 0.0	 550.0	 -550.0	 0.9975	 100.0	 1	 1600.0	 57.448;
	688	 0.0	 0.0	 22.5	 -22.5	 0.9975	 67.5	 0	 298.823	 14.941;
	688	 0.0	 0.0	 16.335	 -16.335	 0.9975	 67.5	 0	 52.506	 15.2;
	698	 184.0585	 -38.55	 21.9	 -99.0	 0.9975	 100.0	 1	 350.588	 17.529;
	712	 430.7865	 -19.119	 81.85	 -120.088	 0.9975	 515.0	 1	 681.073	 180.5;
	716	 122.6795	 -5.098	 63.18	 -73.376	 0.9975	 198.9	 1	 235.859	 9.5;
	734	 46.306	 -2.9245	 13.75	 -19.599	 0.9975	 83.65	 1	 73.612	 19.0;
	735	 840.0	 0.0	 550.0	 -550.0	 0.9975	 100.0	 1	 1600.0	 80.0;
	736	 824.0995	 0.0	 550.0	 -550.0	 0.9975	 100.0	 1	 1600.0	 48.199;
	742	 0.0	 0.0	 59.567	 -59.567	 0.9975	 226.0	 0	 191.471	 146.3;
	750	 0.0	 0.0	 154.54	 -182.9	 0.9975	 444.44	 0	 1080.882	 291.6;
	762	 0.0	 0.0	 96.624	 -96.624	 0.9975	 980.0	 0	 310.588	 15.529;
	764	 0.0	 0.0	 94.428	 -94.428	 0.9975	 100.0	 0	 303.529	 15.176;
	764	 31.2295	 0.0	 18.809	 -18.809	 0.9975	 100.0	 1	 60.459	 2.0;
	767	 0.0	 0.0	 216.58	 -140.8	 0.9975	 771.0	 0	 980.838	 342.0;
	810	 0.0	 0.0	 32.281	 -32.281	 0.9975	 108.0	 0	 103.765	 42.75;
	814	 840.0	 0.0	 550.0	 -550.0	 0.9975	 100.0	 1	 1600.0	 80.0;
	816	 0.0	 0.0	 33.05	 -33.05	 0.9975	 108.0	 0	 106.235	 42.75;
	818	 0.0	 0.0	 42.273	 -42.273	 0.9975	 235.83	 0	 135.882	 99.75;
	818	 0.0	 0.0	 88.433	 -88.433	 0.9975	 265.3	 0	 338.823	 16.941;
	818	 0.0	 0.0	 58.957	 -58.957	 0.9975	 176.87	 0	 347.059	 17.353;
	820	 0.0	 0.0	 32.281	 -32.281	 0.9975	 108.0	 0	 103.765	 42.75;
	823	 147.798	 20.4995	 77.629	 -36.63	 0.9975	 235.83	 1	 249.529	 46.067;
	823	 0.0	 0.0	 25.25	 -10.89	 0.9975	 265.3	 0	 277.941	 13.897;
	823	 0.0	 0.0	 28.823	 -28.823	 0.9975	 176.87	 0	 92.647	 34.358;
	824	 804.767	 0.0	 550.0	 -550.0	 0.9975	 100.0	 1	 1600.0	 9.534;
	826	 0.0	 0.0	 1.443	 -1.443	 0.9975	 4.33	 0	 348.235	 17.412;
	826	 0.0	 0.0	 1.443	 -1.443	 0.9975	 4.33	 0	 309.412	 3.42;
	826	 0.0	 0.0	 1.443	 -1.443	 0.9975	 4.33	 0	 309.412	 15.471;
	827	 0.0	 0.0	 33.05	 -33.05	 0.9975	 108.0	 0	 106.235	 42.75;
	829	 0.0	 0.0	 131.431	 -131.431	 0.9975	 491.41	 0	 422.471	 203.3;
	829	 0.0	 0.0	 9.662	 -9.662	 0.9975	 33.7	 0	 31.059	 11.4;
	829	 0.0	 0.0	 64.562	 -64.562	 0.9975	 242.59	 0	 207.529	 72.2;
	829	 0.0	 0.0	 0.0	 0.0	 0.9975	 300.0	 0	 324.706	 5.7;
	837	 21.0	 0.0	 33.333	 -33.333	 0.9975	 100.0	 1	 40.0	 2.0;
	838	 290.493	 0.0	 127.547	 -127.547	 0.9975	 387.5	 1	 409.986	 171.0;
	839	 0.0	 0.0	 33.05	 -33.05	 0.9975	 108.0	 0	 106.235	 42.75;
	840	 0.0	 0.0	 33.05	 -33.05	 0.9975	 108.0	 0	 106.235	 42.75;
	841	 0.0	 0.0	 102.992	 -102.992	 0.9975	 387.5	 0	 331.059	 171.0;
	842	 0.0	 0.0	 41.861	 -41.58	 0.9975	 235.83	 0	 134.559	 76.25;
	842	 0.0	 0.0	 46.619	 -46.619	 0.9975	 265.3	 0	 149.853	 84.917;
	842	 0.0	 0.0	 28.786	 -28.786	 0.9975	 176.87	 0	 92.529	 56.642;
	850	 0.0	 0.0	 251.33	 -212.5	 0.9975	 636.62	 0	 810.595	 484.5;
	853	 0.0	 0.0	 77.629	 -77.629	 0.9975	 235.83	 0	 249.529	 99.75;
	853	 0.0	 0.0	 88.433	 -88.433	 0.9975	 265.3	 0	 302.353	 15.118;
	853	 0.0	 0.0	 58.957	 -58.957	 0.9975	 176.87	 0	 307.059	 15.353;
	858	 21.0	 0.0	 32.143	 -32.143	 0.9975	 100.0	 1	 40.0	 2.0;
	859	 0.0	 0.0	 11.053	 -11.053	 0.9975	 100.0	 0	 35.529	 15.2;
	862	 21.0	 0.0	 9.151	 -9.151	 0.9975	 100.0	 1	 40.0	 2.0;
	868	 922.113	 0.0	 550.0	 -550.0	 0.9975	 100.0	 1	 1764.226	 80.0;
	869	 813.097	 0.0	 550.0	 -550.0	 0.9975	 100.0	 1	 1600.0	 26.194;
	871	 871.2515	 145.6895	 340.879	 -49.5	 0.9975	 1020.0	 1	 1095.722	 646.781;
	873	 0.0	 0.0	 29.207	 -29.207	 0.9975	 100.0	 0	 93.882	 31.35;
	879	 0.0	 0.0	 33.333	 -33.333	 0.9975	 100.0	 0	 122.294	 74.1;
	880	 21.0	 0.0	 31.492	 -31.492	 0.9975	 100.0	 1	 40.0	 2.0;
	882	 0.0	 0.0	 201.758	 -201.758	 0.9975	 732.0	 0	 648.529	 498.75;
	883	 815.642	 0.0	 550.0	 -550.0	 0.9975	 100.0	 1	 1600.0	 31.284;
	884	 0.0	 0.0	 27.285	 -27.285	 0.9975	 100.0	 0	 87.706	 31.35;
	886	 21.0	 0.0	 33.333	 -33.333	 0.9975	 100.0	 1	 40.0	 2.0;
	888	 21.0	 0.0	 9.15	 -9.15	 0.9975	 100.0	 1	 40.0	 2.0;
	890	 0.0	 0.0	 26.901	 -26.901	 0.9975	 100.0	 0	 86.471	 29.45;
	892	 0.0	 0.0	 102.48	 -102.48	 0.9975	 214.0	 0	 329.412	 16.471;
	892	 0.0	 0.0	 62.451	 -62.451	 0.9975	 214.0	 0	 200.741	 80.75;
	893	 0.0	 0.0	 71.333	 -71.333	 0.9975	 214.0	 0	 328.235	 16.412;
	893	 0.0	 0.0	 64.562	 -64.562	 0.9975	 214.0	 0	 207.529	 89.3;
	896	 654.037	 92.29	 259.75	 -75.17	 0.9975	 732.0	 1	 834.941	 473.133;
	901	 0.0	 0.0	 33.333	 -33.333	 0.9975	 100.0	 0	 122.294	 57.0;
	902	 0.0	 0.0	 220.937	 -49.5	 0.9975	 1012.0	 0	 1300.045	 736.692;
	905	 0.0	 0.0	 11.749	 -11.749	 0.9975	 100.0	 0	 37.765	 17.1;
	908	 0.0	 0.0	 55.248	 -55.248	 0.9975	 250.0	 0	 177.588	 8.879;
	910	 0.0	 0.0	 0.417	 -0.417	 0.9975	 1.25	 0	 331.765	 16.588;
	910	 30.676	 0.0	 18.464	 -18.464	 0.9975	 100.0	 1	 59.352	 2.0;
	913	 0.0	 0.0	 10.1	 -9.775	 0.9975	 25.98	 0	 75.074	 20.65;
	914	 0.0	 0.0	 40.352	 -40.352	 0.9975	 128.0	 0	 129.706	 99.75;
	917	 0.0	 0.0	 21.136	 -21.136	 0.9975	 100.0	 0	 67.941	 42.75;
	918	 0.0	 0.0	 31.183	 -31.183	 0.9975	 113.0	 0	 100.235	 70.2;
	918	 0.0	 0.0	 29.968	 -29.968	 0.9975	 113.0	 0	 96.329	 66.88;
	919	 34.8515	 3.07	 10.1	 -3.96	 0.9975	 43.45	 1	 64.953	 4.75;
	924	 100.597	 0.0	 33.333	 -33.333	 0.9975	 100.0	 1	 192.94	 8.254;
	929	 0.0	 0.0	 10.1	 -10.287	 0.9975	 44.0	 0	 48.176	 4.75;
	931	 0.0	 0.0	 21.136	 -21.136	 0.9975	 100.0	 0	 67.941	 42.75;
	931	 0.0	 0.0	 21.136	 -21.136	 0.9975	 100.0	 0	 67.941	 42.75;
...
];

%% generator cost data
%	2	startup	shutdown	n	c(n-1)	...	c0
mpc.gencost = [
	2	 0.0	 0.0	 3	   0.503800	   0.000000	 2943.000000;
	2	 0.0	 0.0	 3	   0.040410	  40.200000	 1587.000000;
	2	 0.0	 0.0	 3	   0.000000	   0.757900	 1399.000000;
	2	 0.0	 0.0	 3	   0.000000	   0.774200	 1065.000000;
	2	 0.0	 0.0	 3	   0.000000	   0.515000	 167.800000;
	2	 0.0	 0.0	 3	   0.000000	  36.250000	 114.400000;
	2	 0.0	 0.0	 3	   0.000000	   0.515100	 224.300000;
	2	 0.0	 0.0	 3	   0.000000	   9.992000	 101.600000;
	2	 0.0	 0.0	 3	   0.000000	  30.350000	 158.300000;
	2	 0.0	 0.0	 3	   0.000000	  21.600000	 339.700000;
	2	 0.0	 0.0	 3	   0.000000	   0.884000	 100.700000;
	2	 0.0	 0.0	 3	   0.000000	   1.458000	 1821.000000;
	2	 0.0	 0.0	 3	   0.000000	   0.604600	 4689.000000;
	2	 0.0	 0.0	 3	   0.000000	   0.361800	 204.200000;
	2	 0.0	 0.0	 3	   0.000000	  14.510000	 168.700000;
	2	 0.0	 0.0	 3	   0.000000	  21.150000	 150.000000;
	2	 0.0	 0.0	 3	   0.019400	  20.650000	 202.800000;
	2	 0.0	 0.0	 3	   0.000000	  21.550000	 174.700000;
	2	 0.0	 0.0	 3	   0.002088	   0.000000	 6741.000000;
	2	 0.0	 0.0	 3	   0.000000	  22.850000	 139.300000;
	2	 0.0	 0.0	 3	   0.050410	  34.580000	 4631.000000;
	2	 0.0	 0.0	 3	   0.000000	   0.469100	 58420.000000;
	2	 0.0	 0.0	 3	   0.705200	  80.320000	 -886.800000;
	2	 0.0	 0.0	 3	   0.000000	   6.494000	 111.800000;
	2	 0.0	 0.0	 3	   0.000000	   1.665000	 1096.000000;
	2	 0.0	 0.0	 3	   0.000000	   3.440000	 1379.000000;
	2	 0.0	 0.0	 3	   0.000000	   0.369500	 657.000000;
	2	 0.0	 0.0	 3	   0.353500	  29.230000	 3302.000000;
	2	 0.0	 0.0	 3	   0.000000	  27.580000	 119.100000;
	2	 0.0	 0.0	 3	   0.000000	  18.600000	 281.400000;
	2	 0.0	 0.0	 3	   0.000000	   2.305000	 1047.000000;
	2	 0.0	 0.0	 3	   0.000000	   0.541800	 6406.000000;
	2	 0.0	 0.0	 3	   0.000000	   1.239000	 267.200000;
	2	 0.0	 0.0	 3	   0.000000	 198.000000	 -6350.000000;
	2	 0.0	 0.0	 3	   0.000000	   1.497000	 5066.000000;
	2	 0.0	 0.0	 3	   0.765300	   3.521000	 1929.000000;
	2	 0.0	 0.0	 3	   0.703600	  43.730000	 -4206.000000;
	2	 0.0	 0.0	 3	   0.698900	  44.790000	 -1012.000000;
	2	 0.0	 0.0	 3	   0.000000	  24.440000	 219.100000;
	2	 0.0	 0.0	 3	   0.000000	  25.370000	 187.900000;
	2	 0.0	 0.0	 3	   0.002184	   0.000000	 2607.000000;
	2	 0.0	 0.0	 3	   0.000000	   2.775000	 7474.000000;
	2	 0.0	 0.0	 3	   0.000000	   0.682200	 59720.000000;
	2	 0.0	 0.0	 3	   0.000000	   1.293000	 908.900000;
	2	 0.0	 0.0	 3	   0.000000	   1.007000	 1216.000000;
	2	 0.0	 0.0	 3	   0.000000	   0.617300	 626.900000;
	2	 0.0	 0.0	 3	   0.020530	  20.930000	 778.300000;
	2	 0.0	 0.0	 3	   0.000000	   0.190600	 1127.000000;
	2	 0.0	 0.0	 3	   0.000000	   7.399000	 231.200000;
	2	 0.0	 0.0	 3	   0.001192	   6.528000	 1340.000000;
	2	 0.0	 0.0	 3	   0.000000	  87.380000	 -18.290000;
	2	 0.0	 0.0	 3	   0.320500	  25.420000	 4352.000000;
	2	 0.0	 0.0	 3	   0.000000	   7.598000	 185.100000;
	2	 0.0	 0.0	 3	   0.021700	  30.510000	 685.200000;
	2	 0.0	 0.0	 3	   0.000000	  24.000000	 783.800000;
	2	 0.0	 0.0	 3	   0.000000	   0.178200	 1166.000000;
	2	 0.0	 0.0	 3	   0.000000	   0.851000	 1263.000000;
	2	 0.0	 0.0	 3	   0.116500	  58.080000	 2254.000000;
	2	 0.0	 0.0	 3	   0.000000	   2.335000	 1261.000000;
	2	 0.0	 0.0	 3	   0.000000	   2.487000	 1418.000000;
	2	 0.0	 0.0	 3	   0.000000	   1.384000	 941.500000;
	2	 0.0	 0.0	 3	   0.000000	   6.613000	  87.340000;
	2	 0.0	 0.0	 3	   0.000000	  21.240000	 1339.000000;
	2	 0.0	 0.0	 3	   0.015360	  23.330000	 708.600000;
	2	 0.0	 0.0	 3	   0.000000	   0.787200	 25970.000000;
	2	 0.0	 0.0	 3	   0.000000	  84.410000	 124.900000;
	2	 0.0	 0.0	 3	   0.014560	  16.480000	 4034.000000;
	2	 0.0	 0.0	 3	   0.000000	   5.018000	  51.540000;
	2	 0.0	 0.0	 3	   0.000000	   2.480000	 2468.000000;
	2	 0.0	 0.0	 3	   0.016460	  25.270000	 3811.000000;
	2	 0.0	 0.0	 3	   0.000000	   1.528000	 1077.000000;
	2	 0.0	 0.0	 3	   0.028490	  32.590000	 3466.000000;
	2	 0.0	 0.0	 3	   0.008243	  18.840000	 953.700000;
	2	 0.0	 0.0	 3	   0.172800	  28.540000	 127.700000;
	2	 0.0	 0.0	 3	   0.000000	   0.771900	 237.500000;
	2	 0.0	 0.0	 3	   0.063730	  26.940000	 5588.000000;
	2	 0.0	 0.0	 3	   0.000000	  68.610000	 1337.000000;
	2	 0.0	 0.0	 3	   0.000000	   0.450300	 1124.000000;
	2	 0.0	 0.0	 3	   0.000000	   6.847000	 144.800000;
	2	 0.0	 0.0	 3	   0.000000	   1.572000	 1053.000000;
	2	 0.0	 0.0	 3	   0.000000	   1.170000	 1122.000000;
	2	 0.0	 0.0	 3	   0.000000	   2.287000	 12670.000000;
	2	 0.0	 0.0	 3	   0.000000	   0.165300	 4865.000000;
	2	 0.0	 0.0	 3	   0.000000	   6.613000	 122.900000;
	2	 0.0	 0.0	 3	   0.000000	   0.401700	 3878.000000;
	2	 0.0	 0.0	 3	   0.000000	   0.982500	 365.300000;
	2	 0.0	 0.0	 3	   0.046980	  36.540000	 5908.000000;
	2	 0.0	 0.0	 3	   0.049700	  38.460000	 5100.000000;
	2	 0.0	 0.0	 3	   0.913900	  17.870000	 1046.000000;
	2	 0.0	 0.0	 3	   0.377400	   9.421000	 122.400000;
	2	 0.0	 0.0	 3	   0.000000	   4.837000	 154.700000;
	2	 0.0	 0.0	 3	   0.000000	   1.916000	 1437.000000;
	2	 0.0	 0.0	 3	   0.000000	  20.360000	 114.300000;
	2	 0.0	 0.0	 3	   0.000000	  14.270000	 126.100000;
	2	 0.0	 0.0	 3	   0.000000	   1.144000	 360.000000;
	2	 0.0	 0.0	 3	   0.000000	   1.191000	 951.700000;
	2	 0.0	 0.0	 3	   0.352500	  29.530000	 3278.000000;
	2	 0.0	 0.0	 3	   0.000000	  49.740000	 1501.000000;
	2	 0.0	 0.0	 3	   0.318800	  26.000000	 4315.000000;
	2	 0.0	 0.0	 3	   0.000000	   2.518000	 1145.000000;
	2	 0.0	 0.0	 3	   0.000000	   2.521000	 1374.000000;
	2	 0.0	 0.0	 3	   0.000000	   1.341000	 372.200000;
	2	 0.0	 0.0	 3	   0.000000	   1.819000	 1099.000000;
	2	 0.0	 0.0	 3	   0.000000	   0.868700	 698.000000;
	2	 0.0	 0.0	 3	   0.068770	  39.460000	 3838.000000;
	2	 0.0	 0.0	 3	   0.000000	   0.407200	 509.600000;
	2	 0.0	 0.0	 3	   0.000000	   1.552000	 619.700000;
	2	 0.0	 0.0	 3	   0.000000	   1.930000	 1026.000000;
	2	 0.0	 0.0	 3	   0.289600	  81.480000	 -1617.000000;
	2	 0.0	 0.0	 3	   0.000000	   0.502000	 1070.000000;
	2	 0.0	 0.0	 3	   0.000000	  28.530000	 283.800000;
	2	 0.0	 0.0	 3	   0.000000	   1.337000	 1255.000000;
	2	 0.0	 0.0	 3	   0.000000	   7.095000	 731.800000;
	2	 0.0	 0.0	 3	   0.000000	   1.183000	 956.000000;
	2	 0.0	 0.0	 3	   0.000000	   1.378000	 1022.000000;
	2	 0.0	 0.0	 3	   0.883300	  23.160000	 837.100000;
	2	 0.0	 0.0	 3	   0.000000	   0.943400	 1190.000000;
	2	 0.0	 0.0	 3	   0.000000	   1.390000	 272.800000;
	2	 0.0	 0.0	 3	   0.000000	   0.195200	 2223.000000;
	2	 0.0	 0.0	 3	   0.007819	  16.610000	 1153.000000;
	2	 0.0	 0.0	 3	   0.000000	  20.410000	 931.000000;
	2	 0.0	 0.0	 3	   0.000000	   1.060000	 1271.000000;
	2	 0.0	 0.0	 3	   0.000000	   2.245000	 17320.000000;
	2	 0.0	 0.0	 3	   0.013110	  23.760000	 762.400000;
	2	 0.0	 0.0	 3	   0.133500	   0.000000	 1411.000000;
	2	 0.0	 0.0	 3	   0.000107	   0.770700	 8794.000000;
	2	 0.0	 0.0	 3	   0.000000	   0.620700	 5781.000000;
	2	 0.0	 0.0	 3	   0.321300	  26.720000	 4169.000000;
	2	 0.0	 0.0	 3	   0.000000	   0.936500	 21580.000000;
	2	 0.0	 0.0	 3	   0.000000	   0.207900	 1029.000000;
	2	 0.0	 0.0	 3	   0.000000	   0.693200	 1066.000000;
	2	 0.0	 0.0	 3	   0.000000	   4.067000	 110.400000;
	2	 0.0	 0.0	 3	   0.000000	   0.223900	 26410.000000;
	2	 0.0	 0.0	 3	   0.232200	  52.950000	 1494.000000;
	2	 0.0	 0.0	 3	   0.000222	   0.214800	 5617.000000;
	2	 0.0	 0.0	 3	   0.153600	  62.380000	 1078.000000;
	2	 0.0	 0.0	 3	   0.589700	   7.978000	 3051.000000;
	2	 0.0	 0.0	 3	   0.000000	   0.176900	 1168.000000;
	2	 0.0	 0.0	 3	   0.000000	   0.801900	 1338.000000;
	2	 0.0	 0.0	 3	   0.177300	  74.140000	 884.100000;
	2	 0.0	 0.0	 3	   0.016210	  25.220000	 3534.000000;
	2	 0.0	 0.0	 3	   0.009644	  20.310000	 1184.000000;
	2	 0.0	 0.0	 3	   0.000000	  20.950000	 2792.000000;
	2	 0.0	 0.0	 3	   0.000000	   0.682400	 902.100000;
	2	 0.0	 0.0	 3	   0.000000	   0.803400	 1169.000000;
	2	 0.0	 0.0	 3	   0.000000	   1.228000	 244.400000;
	2	 0.0	 0.0	 3	   0.000000	   0.479400	 2113.000000;
	2	 0.0	 0.0	 3	   0.214700	  51.590000	 1591.000000;
	2	 0.0	 0.0	 3	   0.000000	   2.697000	 12460.000000;
	2	 0.0	 0.0	 3	   0.000000	  11.240000	 533.000000;
	2	 0.0	 0.0	 3	   0.047860	  25.810000	 4935.000000;
	2	 0.0	 0.0	 3	   0.000000	   0.827900	 419.900000;
	2	 0.0	 0.0	 3	   0.000000	   5.815000	 116.200000;
	2	 0.0	 0.0	 3	   0.000000	   2.760000	 11760.000000;
	2	 0.0	 0.0	 3	   0.163900	  71.800000	 1039.000000;
	2	 0.0	 0.0	 3	   0.163900	  71.800000	 996.600000;
	2	 0.0	 0.0	 3	   0.000000	   2.841000	 11320.000000;
	2	 0.0	 0.0	 3	   0.193800	  63.900000	 1819.000000;
	2	 0.0	 0.0	 3	   0.156800	  57.260000	 2674.000000;
	2	 0.0	 0.0	 3	   0.000000	  39.160000	 2021.000000;
	2	 0.0	 0.0	 3	   0.008173	   5.677000	 42460.000000;
	2	 0.0	 0.0	 3	   0.000000	  21.360000	 7967.000000;
	2	 0.0	 0.0	 3	   0.000000	   1.229000	 1062.000000;
	2	 0.0	 0.0	 3	   0.000000	   1.244000	 1114.000000;
	2	 0.0	 0.0	 3	   0.000000	   7.657000	 184.100000;
	2	 0.0	 0.0	 3	   0.000000	  60.160000	 644.800000;
	2	 0.0	 0.0	 3	   0.322400	   8.046000	 150.300000;
	2	 0.0	 0.0	 3	   0.000000	   0.444600	 5801.000000;
	2	 0.0	 0.0	 3	   0.000000	   0.195900	 2140.000000;
	2	 0.0	 0.0	 3	   0.000000	   1.646000	 47330.000000;
	2	 0.0	 0.0	 3	   0.109300	   0.000000	 2144.000000;
	2	 0.0	 0.0	 3	   0.289200	  69.970000	 837.100000;
	2	 0.0	 0.0	 3	   0.000000	  24.300000	  55.290000;
	2	 0.0	 0.0	 3	   0.000000	   8.931000	 47340.000000;
	2	 0.0	 0.0	 3	   0.000267	   0.232700	 6198.000000;
	2	 0.0	 0.0	 3	   0.000000	  10.700000	 1756.000000;
	2	 0.0	 0.0	 3	   0.000000	  16.130000	 137.800000;
	2	 0.0	 0.0	 3	   0.000000	  15.950000	 148.600000;
	2	 0.0	 0.0	 3	   0.000000	  10.570000	 1647.000000;
	2	 0.0	 0.0	 3	   0.000000	   0.844900	 1242.000000;
	2	 0.0	 0.0	 3	   0.046350	  37.850000	 2175.000000;
	2	 0.0	 0.0	 3	   0.000000	   2.737000	 1390.000000;
	2	 0.0	 0.0	 3	   0.047730	  37.490000	 5399.000000;
	2	 0.0	 0.0	 3	   0.005131	  10.170000	 42330.000000;
	2	 0.0	 0.0	 3	   0.155000	  65.760000	 1609.000000;
	2	 0.0	 0.0	 3	   0.000000	   0.471800	 47940.000000;
	2	 0.0	 0.0	 3	   0.000000	  47.670000	 560.000000;
	2	 0.0	 0.0	 3	   0.030960	  25.670000	 675.900000;
	2	 0.0	 0.0	 3	   0.000000	   2.600000	 508.000000;
	2	 0.0	 0.0	 3	   0.000000	  13.250000	  54.730000;
	2	 0.0	 0.0	 3	   0.123100	   0.000000	 947.700000;
	2	 0.0	 0.0	 3	   0.673200	  26.280000	 -50.970000;
	2	 0.0	 0.0	 3	   0.000000	   9.711000	 2485.000000;
	2	 0.0	 0.0	 3	   0.932500	  17.880000	 999.700000;
	2	 0.0	 0.0	 3	   0.000000	   9.991000	 3952.000000;
	2	 0.0	 0.0	 3	   0.000000	   3.174000	 280.100000;
	2	 0.0	 0.0	 3	   0.025850	  23.520000	 637.800000;
	2	 0.0	 0.0	 3	   0.000000	  13.940000	 272.600000;
	2	 0.0	 0.0	 3	   0.000000	  31.720000	 769.500000;
	2	 0.0	 0.0	 3	   0.000000	  32.640000	 2063.000000;
...
];

%% branch data
%	fbus	tbus	r	x	b	rateA	rateB	rateC	ratio	angle	status	angmin	angmax
mpc.branch = [
	3	 17	 0.0062	 0.0245	 0.0	 260.0	 312.0	 390.0	 0.0	 0.0	 1	 -12.2210678634	 12.2210678634;
	3	 25	 0.0044	 0.0165	 0.0	 260.0	 312.0	 390.0	 0.0	 0.0	 1	 -12.2210678634	 12.2210678634;
	6	 17	 0.0163	 0.0655	 0.0	 260.0	 312.0	 390.0	 0.0	 0.0	 1	 -12.2210678634	 12.2210678634;
	9	 15	 0.0257	 0.0526	 0.0	 62.0	 81.0	 81.0	 0.0	 0.0	 1	 -12.2210678634	 12.2210678634;
	9	 18	 0.0063	 0.0149	 0.0	 74.0	 88.0	 88.0	 0.0	 0.0	 1	 -12.2210678634	 12.2210678634;
	10	 12	 0.03	 0.0878	 0.0	 62.0	 81.0	 81.0	 0.0	 0.0	 1	 -12.2210678634	 12.2210678634;
	10	 16	 0.03	 0.12929	 0.0	 57.0	 64.0	 64.0	 0.0	 0.0	 1	 -12.2210678634	 12.2210678634;
	11	 23	 0.03	 0.14678	 0.0	 260.0	 312.0	 390.0	 0.0	 0.0	 1	 -12.2210678634	 12.2210678634;
	11	 25	 0.01389	 0.0333	 0.0	 260.0	 312.0	 390.0	 0.0	 0.0	 1	 -12.2210678634	 12.2210678634;
	12	 25	 0.03	 0.1182	 0.0	 36.0	 54.0	 54.0	 0.0	 0.0	 1	 -12.2210678634	 12.2210678634;
	13	 14	 0.0106	 0.0205	 0.0	 62.0	 81.0	 81.0	 0.0	 0.0	 1	 -12.2210678634	 12.2210678634;
	13	 16	 0.0269	 0.0519	 0.0	 62.0	 81.0	 81.0	 0.0	 0.0	 1	 -12.2210678634	 12.2210678634;
	16	 18	 0.03	 0.0794	 0.0	 74.0	 88.0	 88.0	 0.0	 0.0	 1	 -12.2210678634	 12.2210678634;
	16	 991	 0.0001	 0.01	 0.0	 83.7	 98.6	 125.55	 0.0	 0.0	 1	 -12.2210678634	 12.2210678634;
	18	 26	 0.03	 0.0826	 0.0	 43.0	 47.0	 47.0	 0.0	 0.0	 1	 -12.2210678634	 12.2210678634;
	19	 26	 0.03	 0.0751	 0.0	 74.0	 95.0	 95.0	 0.0	 0.0	 1	 -12.2210678634	 12.2210678634;
	23	 4593	 0.0001	 0.01	 0.0	 83.7	 98.6	 125.55	 0.0	 0.0	 1	 -12.2210678634	 12.2210678634;
	28	 58	 0.0013	 0.0099	 0.02132	 260.0	 312.0	 390.0	 0.0	 0.0	 1	 -12.2210678634	 12.2210678634;
	30	 34	 0.03	 0.15	 0.0	 260.0	 312.0	 390.0	 0.0	 0.0	 1	 -12.2210678634	 12.2210678634;
	30	 37	 0.03	 0.15	 0.0	 260.0	 312.0	 390.0	 0.0	 0.0	 1	 -12.2210678634	 12.2210678634;
	30	 55	 0.03	 0.15	 0.0	 260.0	 312.0	 390.0	 0.0	 0.0	 1	 -12.2210678634	 12.2210678634;
	30	 56	 0.03	 0.15	 0.0	 260.0	 312.0	 390.0	 0.0	 0.0	 1	 -12.2210678634	 12.2210678634;
	30	 60	 0.03	 0.15	 0.0	 260.0	 312.0	 390.0	 0.0	 0.0	 1	 -12.2210678634	 12.2210678634;
	30	 71	 0.03	 0.15	 0.0	 260.0	 312.0	 390.0	 0.0	 0.0	 1	 -12.2210678634	 12.2210678634;
	31	 36	 0.03	 0.15	 0.0	 260.0	 312.0	 390.0	 0.0	 0.0	 1	 -12.2210678634	 12.2210678634;
	31	 42	 0.0111	 0.15	 0.0	 260.0	 312.0	 390.0	 0.0	 0.0	 1	 -12.2210678634	 12.2210678634;
	31	 60	 0.03	 0.15	 0.0	 260.0	 312.0	 390.0	 0.0	 0.0	 1	 -12.2210678634	 12.2210678634;
	32	 36	 0.03	 0.15	 0.0	 260.0	 312.0	 390.0	 0.0	 0.0	 1	 -12.2210678634	 12.2210678634;
	32	 74	 0.03	 0.15	 0.0	 260.0	 312.0	 390.0	 0.0	 0.0	 1	 -12.2210678634	 12.2210678634;
	33	 43	 0.0042	 0.0253	 0.0485	 260.0	 312.0	 390.0	 0.0	 0.0	 1	 -12.2210678634	 12.2210678634;
	33	 81	 0.0046	 0.0315	 0.059	 260.0	 312.0	 390.0	 0.0	 0.0	 1	 -12.2210678634	 12.2210678634;
	34	 55	 -0.0656	 0.15	 0.0	 260.0	 312.0	 390.0	 0.0	 0.0	 1	 -12.2210678634	 12.2210678634;
	34	 60	 0.03	 0.15	 0.0	 260.0	 312.0	 390.0	 0.0	 0.0	 1	 -12.2210678634	 12.2210678634;
	34	 71	 0.0162	 0.15	 0.0	 260.0	 312.0	 390.0	 0.0	 0.0	 1	 -12.2210678634	 12.2210678634;
	35	 37	 -0.0598	 0.15	 0.0	 260.0	 312.0	 390.0	 0.0	 0.0	 1	 -12.2210678634	 12.2210678634;
	35	 56	 -0.0578	 0.15	 0.0	 260.0	 312.0	 390.0	 0.0	 0.0	 1	 -12.2210678634	 12.2210678634;
	35	 61	 0.01979	 0.0496	 0.0	 260.0	 312.0	 390.0	 0.0	 0.0	 1	 -12.2210678634	 12.2210678634;
	36	 37	 0.03	 0.15	 0.0	 260.0	 312.0	 390.0	 0.0	 0.0	 1	 -12.2210678634	 12.2210678634;
	36	 42	 0.03	 0.15	 0.0	 260.0	 312.0	 390.0	 0.0	 0.0	 1	 -12.2210678634	 12.2210678634;
	36	 56	 0.03	 0.15	 0.0	 260.0	 312.0	 390.0	 0.0	 0.0	 1	 -12.2210678634	 12.2210678634;
	36	 60	 0.03	 0.15	 0.0	 260.0	 312.0	 390.0	 0.0	 0.0	 1	 -12.2210678634	 12.2210678634;
	36	 61	 0.03	 0.15	 0.0	 260.0	 312.0	 390.0	 0.0	 0.0	 1	 -12.2210678634	 12.2210678634;
	36	 74	 0.03	 0.15	 0.0	 260.0	 312.0	 390.0	 0.0	 0.0	 1	 -12.2210678634	 12.2210678634;
	37	 55	 0.03	 0.15	 0.0	 260.0	 312.0	 390.0	 0.0	 0.0	 1	 -12.2210678634	 12.2210678634;
	37	 56	 0.0009	 0.0008	 0.0	 260.0	 312.0	 390.0	 0.0	 0.0	 1	 -12.2210678634	 12.2210678634;
	37	 60	 0.03	 0.15	 0.0	 260.0	 312.0	 390.0	 0.0	 0.0	 1	 -12.2210678634	 12.2210678634;
	37	 61	 0.01526	 0.02962	 0.0	 260.0	 312.0	 390.0	 0.0	 0.0	 1	 -12.2210678634	 12.2210678634;
	38	 74	 0.03	 0.15	 0.0	 260.0	 312.0	 390.0	 0.0	 0.0	 1	 -12.2210678634	 12.2210678634;
	38	 76	 0.03	 0.15	 0.0	 260.0	 312.0	 390.0	 0.0	 0.0	 1	 -12.2210678634	 12.2210678634;
	39	 45	 0.0136	 0.0903	 0.1732	 260.0	 312.0	 390.0	 0.0	 0.0	 1	 -12.2210678634	 12.2210678634;
	39	 183	 0.0001	 0.01	 0.0	 133.13	 159.75	 199.69	 0.0	 0.0	 1	 -12.2210678634	 12.2210678634;
	40	 49	 0.0154	 0.0991	 0.17817	 546.73	 656.08	 820.1	 0.0	 0.0	 1	 -12.2210678634	 12.2210678634;
	40	 58	 0.0122	 0.0943	 0.18743	 260.0	 312.0	 390.0	 0.0	 0.0	 1	 -12.2210678634	 12.2210678634;
	40	 66	 0.0065	 0.0503	 0.10008	 260.0	 312.0	 390.0	 0.0	 0.0	 1	 -12.2210678634	 12.2210678634;
	40	 67	 0.0022	 0.0262	 0.05566	 675.98	 811.18	 1013.98	 0.0	 0.0	 1	 -12.2210678634	 12.2210678634;
	40	 67	 0.0027	 0.0268	 0.05696	 673.14	 807.77	 1009.71	 0.0	 0.0	 1	 -12.2210678634	 12.2210678634;
	41	 1978	 0.0001	 0.01	 0.0	 351.0	 386.1	 421.2	 0.0	 0.0	 1	 -12.2210678634	 12.2210678634;
	42	 60	 0.03	 0.15	 0.0	 260.0	 312.0	 390.0	 0.0	 0.0	 1	 -12.2210678634	 12.2210678634;
	43	 736	 0.0001	 0.01	 0.0	 204.0	 224.4	 244.8	 0.0	 0.0	 1	 -12.2210678634	 12.2210678634;
	44	 70	 0.0123	 0.0822	 0.15137	 260.0	 312.0	 390.0	 0.0	 0.0	 1	 -12.2210678634	 12.2210678634;
	44	 79	 0.0057	 0.0382	 0.07047	 260.0	 312.0	 390.0	 0.0	 0.0	 1	 -12.2210678634	 12.2210678634;
	45	 62	 0.00605	 0.03642	 0.06956	 260.0	 312.0	 390.0	 0.0	 0.0	 1	 -12.2210678634	 12.2210678634;
	45	 79	 0.00203	 0.01191	 0.02399	 260.0	 312.0	 390.0	 0.0	 0.0	 1	 -12.2210678634	 12.2210678634;
	46	 80	 0.00116	 0.0314	 2.6586	 674.53	 809.44	 1011.8	 0.0	 0.0	 1	 -12.2210678634	 12.2210678634;
	49	 72	 0.0106	 0.0684	 0.13505	 260.0	 312.0	 390.0	 0.0	 0.0	 1	 -12.2210678634	 12.2210678634;
	49	 75	 0.0112	 0.0727	 0.14343	 260.0	 312.0	 390.0	 0.0	 0.0	 1	 -12.2210678634	 12.2210678634;
	49	 77	 0.00197	 0.01283	 0.02477	 260.0	 312.0	 390.0	 0.0	 0.0	 1	 -12.2210678634	 12.2210678634;
	50	 2001	 0.0001	 0.01	 0.0	 390.75	 468.9	 586.12	 0.0	 0.0	 1	 -12.2210678634	 12.2210678634;
	51	 63	 0.0045	 0.0221	 0.00642	 260.0	 312.0	 390.0	 0.0	 0.0	 1	 -12.2210678634	 12.2210678634;
	53	 72	 0.0034	 0.0221	 0.04362	 260.0	 312.0	 390.0	 0.0	 0.0	 1	 -12.2210678634	 12.2210678634;
	54	 76	 0.03	 0.15	 0.0	 260.0	 312.0	 390.0	 0.0	 0.0	 1	 -12.2210678634	 12.2210678634;
	54	 1587	 0.0001	 0.01	 0.0	 83.7	 98.6	 125.55	 0.0	 0.0	 1	 -12.2210678634	 12.2210678634;
	55	 56	 0.03	 0.15	 0.0	 260.0	 312.0	 390.0	 0.0	 0.0	 1	 -12.2210678634	 12.2210678634;
	55	 60	 0.03	 0.15	 0.0	 260.0	 312.0	 390.0	 0.0	 0.0	 1	 -12.2210678634	 12.2210678634;
	55	 71	 -0.0656	 0.15	 0.0	 260.0	 312.0	 390.0	 0.0	 0.0	 1	 -12.2210678634	 12.2210678634;
	56	 61	 0.01598	 0.03011	 0.0	 260.0	 312.0	 390.0	 0.0	 0.0	 1	 -12.2210678634	 12.2210678634;
	57	 59	 0.01265	 0.06079	 0.0289	 260.0	 312.0	 390.0	 0.0	 0.0	 1	 -12.2210678634	 12.2210678634;
	57	 68	 0.0239	 0.1186	 0.06562	 260.0	 312.0	 390.0	 0.0	 0.0	 1	 -12.2210678634	 12.2210678634;
	58	 70	 0.0001	 0.001	 0.00208	 260.0	 312.0	 390.0	 0.0	 0.0	 1	 -12.2210678634	 12.2210678634;
	60	 71	 0.03	 0.15	 0.0	 260.0	 312.0	 390.0	 0.0	 0.0	 1	 -12.2210678634	 12.2210678634;
	62	 69	 0.00421	 0.0253	 0.04874	 260.0	 312.0	 390.0	 0.0	 0.0	 1	 -12.2210678634	 12.2210678634;
	64	 65	 0.0044	 0.034	 0.06751	 260.0	 312.0	 390.0	 0.0	 0.0	 1	 -12.2210678634	 12.2210678634;
	64	 66	 0.0049	 0.0375	 0.07449	 416.0	 499.2	 624.01	 0.0	 0.0	 1	 -12.2210678634	 12.2210678634;
	65	 67	 0.0048	 0.0569	 0.12161	 260.0	 312.0	 390.0	 0.0	 0.0	 1	 -12.2210678634	 12.2210678634;
	66	 70	 0.0091	 0.0698	 0.13869	 260.0	 312.0	 390.0	 0.0	 0.0	 1	 -12.2210678634	 12.2210678634;
	69	 731	 0.0001	 0.01	 0.0	 161.0	 177.1	 193.2	 0.0	 0.0	 1	 -12.2210678634	 12.2210678634;
	73	 1986	 0.0001	 0.01	 0.0	 238.0	 261.8	 285.6	 0.0	 0.0	 1	 -12.2210678634	 12.2210678634;
	77	 81	 0.01244	 0.081	 0.1561	 260.0	 312.0	 390.0	 0.0	 0.0	 1	 -12.2210678634	 12.2210678634;
	78	 2013	 0.0001	 0.01	 0.0	 128.1	 153.72	 192.15	 0.0	 0.0	 1	 -12.2210678634	 12.2210678634;
	83	 182	 0.00183	 0.00937	 0.00122	 187.0	 190.0	 190.0	 0.0	 0.0	 1	 -12.2210678634	 12.2210678634;
	83	 394	 0.00022	 0.00113	 0.00012	 141.0	 153.0	 153.0	 0.0	 0.0	 1	 -12.2210678634	 12.2210678634;
	85	 314	 0.01166	 0.04179	 0.00542	 128.0	 128.0	 128.0	 0.0	 0.0	 1	 -12.2210678634	 12.2210678634;
	85	 778	 0.00022	 0.001	 0.0	 128.0	 128.0	 128.0	 0.0	 0.0	 1	 -12.2210678634	 12.2210678634;
	90	 428	 0.00763	 0.03119	 0.00742	 359.0	 359.0	 359.0	 0.0	 0.0	 1	 -12.2210678634	 12.2210678634;
	90	 1214	 0.0001	 0.01	 0.0	 128.57	 154.28	 192.85	 0.0	 0.0	 1	 -12.2210678634	 12.2210678634;
	91	 674	 0.00046	 0.00369	 0.01465	 782.0	 782.0	 782.0	 0.0	 0.0	 1	 -12.2210678634	 12.2210678634;
	91	 759	 0.00108	 0.00864	 0.0032	 782.0	 782.0	 782.0	 0.0	 0.0	 1	 -12.2210678634	 12.2210678634;
	92	 404	 0.00131	 0.00851	 0.00107	 241.0	 241.0	 241.0	 0.0	 0.0	 1	 -12.2210678634	 12.2210678634;
	94	 753	 0.00056	 0.00423	 0.01581	 1080.0	 1080.0	 1080.0	 0.0	 0.0	 1	 -12.2210678634	 12.2210678634;
	96	 642	 0.0033	 0.01223	 0.00197	 141.0	 153.0	 153.0	 0.0	 0.0	 1	 -12.2210678634	 12.2210678634;
	97	 582	 0.00036	 0.00336	 0.013	 940.0	 1020.0	 1020.0	 0.0	 0.0	 1	 -12.2210678634	 12.2210678634;
	97	 622	 0.00065	 0.00605	 0.02335	 1007.0	 1107.7	 1208.4	 0.0	 0.0	 1	 -12.2210678634	 12.2210678634;
	98	 667	 0.0001	 0.001	 0.0	 564.0	 607.0	 607.0	 0.0	 0.0	 1	 -12.2210678634	 12.2210678634;
	101	 375	 0.00673	 0.03407	 0.0048	 190.0	 190.0	 190.0	 0.0	 0.0	 1	 -12.2210678634	 12.2210678634;
	101	 437	 0.00202	 0.01043	 0.00146	 193.0	 193.0	 193.0	 0.0	 0.0	 1	 -12.2210678634	 12.2210678634;
	107	 569	 0.00136	 0.01038	 0.00163	 259.0	 259.0	 259.0	 0.0	 0.0	 1	 -12.2210678634	 12.2210678634;
	107	 607	 0.00143	 0.01098	 0.00172	 259.0	 259.0	 259.0	 0.0	 0.0	 1	 -12.2210678634	 12.2210678634;
	109	 353	 0.00049	 0.00374	 0.01349	 1080.0	 1080.0	 1080.0	 0.0	 0.0	 1	 -12.2210678634	 12.2210678634;
	109	 724	 0.00025	 0.00188	 0.00684	 1080.0	 1080.0	 1080.0	 0.0	 0.0	 1	 -12.2210678634	 12.2210678634;
	110	 252	 0.00159	 0.01593	 0.00238	 264.0	 264.0	 264.0	 0.0	 0.0	 1	 -12.2210678634	 12.2210678634;
	110	 1151	 0.0001	 0.01	 0.0	 167.93	 201.52	 251.9	 0.0	 0.0	 1	 -12.2210678634	 12.2210678634;
	111	 219	 0.00021	 0.00474	 0.45346	 3603.0	 3603.0	 3603.0	 0.0	 0.0	 1	 -12.2210678634	 12.2210678634;
	111	 399	 0.00051	 0.01136	 1.0862	 2666.0	 2702.0	 2702.0	 0.0	 0.0	 1	 -12.2210678634	 12.2210678634;
	115	 314	 0.00442	 0.02193	 0.00308	 207.0	 207.0	 207.0	 0.0	 0.0	 1	 -12.2210678634	 12.2210678634;
	115	 573	 0.00356	 0.02198	 0.00308	 207.0	 207.0	 207.0	 0.0	 0.0	 1	 -12.2210678634	 12.2210678634;
	118	 466	 0.00045	 0.0093	 0.702	 3164.0	 3164.0	 3164.0	 0.0	 0.0	 1	 -12.2210678634	 12.2210678634;
	118	 512	 0.0002	 0.0042	 0.31241	 2702.0	 2702.0	 2702.0	 0.0	 0.0	 1	 -12.2210678634	 12.2210678634;
	118	 799	 0.00037	 0.00778	 0.58809	 2702.0	 2702.0	 2702.0	 0.0	 0.0	 1	 -12.2210678634	 12.2210678634;
	119	 503	 0.00137	 0.01051	 0.00163	 239.0	 249.0	 249.0	 0.0	 0.0	 1	 -12.2210678634	 12.2210678634;
	119	 569	 0.00227	 0.01734	 0.00272	 259.0	 259.0	 259.0	 0.0	 0.0	 1	 -12.2210678634	 12.2210678634;
	121	 331	 0.00084	 0.00773	 0.02751	 663.0	 663.0	 663.0	 0.0	 0.0	 1	 -12.2210678634	 12.2210678634;
	121	 630	 0.0001	 0.001	 0.0	 260.0	 312.0	 390.0	 0.0	 0.0	 1	 -12.2210678634	 12.2210678634;
	124	 539	 0.00078	 0.0064	 0.01355	 510.0	 510.0	 510.0	 0.0	 0.0	 1	 -12.2210678634	 12.2210678634;
	124	 542	 0.0004	 0.0033	 0.00684	 517.0	 517.0	 517.0	 0.0	 0.0	 1	 -12.2210678634	 12.2210678634;
	125	 313	 0.00083	 0.00976	 0.00146	 364.0	 364.0	 364.0	 0.0	 0.0	 1	 -12.2210678634	 12.2210678634;
	125	 456	 0.00272	 0.04203	 0.00642	 414.0	 414.0	 414.0	 0.0	 0.0	 1	 -12.2210678634	 12.2210678634;
	125	 518	 0.00413	 0.02785	 0.00407	 325.0	 325.0	 325.0	 0.0	 0.0	 1	 -12.2210678634	 12.2210678634;
	125	 695	 0.00088	 0.0135	 0.00206	 397.0	 414.0	 414.0	 0.0	 0.0	 1	 -12.2210678634	 12.2210678634;
	126	 206	 0.00944	 0.02664	 0.00322	 179.0	 179.0	 179.0	 0.0	 0.0	 1	 -12.2210678634	 12.2210678634;
	129	 653	 0.00374	 0.01116	 0.00122	 128.0	 128.0	 128.0	 0.0	 0.0	 1	 -12.2210678634	 12.2210678634;
	129	 1223	 0.0001	 0.01	 0.0	 83.7	 98.6	 125.55	 0.0	 0.0	 1	 -12.2210678634	 12.2210678634;
	130	 323	 0.0002	 0.0054	 0.41	 3450.0	 3603.0	 3603.0	 0.0	 0.0	 1	 -12.2210678634	 12.2210678634;
	130	 376	 0.00012	 0.00276	 0.25	 2702.0	 2702.0	 2702.0	 0.0	 0.0	 1	 -12.2210678634	 12.2210678634;
	130	 880	 0.0001	 0.01	 0.0	 537.81	 645.38	 806.72	 0.0	 0.0	 1	 -12.2210678634	 12.2210678634;
	132	 793	 0.00057	 0.00452	 0.017	 782.0	 782.0	 782.0	 0.0	 0.0	 1	 -12.2210678634	 12.2210678634;
	132	 798	 0.00084	 0.00676	 0.02499	 782.0	 782.0	 782.0	 0.0	 0.0	 1	 -12.2210678634	 12.2210678634;
	134	 182	 0.0065	 0.03322	 0.004	 141.0	 153.0	 153.0	 0.0	 0.0	 1	 -12.2210678634	 12.2210678634;
	134	 361	 0.00642	 0.03305	 0.00433	 141.0	 153.0	 153.0	 0.0	 0.0	 1	 -12.2210678634	 12.2210678634;
	136	 285	 0.00085	 0.00649	 0.85367	 632.0	 632.0	 632.0	 0.0	 0.0	 1	 -12.2210678634	 12.2210678634;
	141	 401	 0.00032	 0.00273	 0.02142	 829.0	 829.0	 829.0	 0.0	 0.0	 1	 -12.2210678634	 12.2210678634;
	141	 441	 0.00043	 0.00361	 0.02789	 940.0	 1020.0	 1020.0	 0.0	 0.0	 1	 -12.2210678634	 12.2210678634;
	142	 268	 0.00241	 0.01935	 0.07159	 782.0	 782.0	 782.0	 0.0	 0.0	 1	 -12.2210678634	 12.2210678634;
	142	 674	 0.0013	 0.0104	 0.03853	 782.0	 782.0	 782.0	 0.0	 0.0	 1	 -12.2210678634	 12.2210678634;
	146	 466	 0.0004	 0.01017	 0.79747	 2272.0	 2551.0	 2551.0	 0.0	 0.0	 1	 -12.2210678634	 12.2210678634;
	146	 1160	 0.0001	 0.01	 0.0	 438.0	 481.8	 525.6	 0.0	 0.0	 1	 -12.2210678634	 12.2210678634;
	147	 302	 0.00025	 0.0019	 0.00732	 572.0	 572.0	 572.0	 0.0	 0.0	 1	 -12.2210678634	 12.2210678634;
	147	 741	 0.0001	 0.001	 0.16846	 572.0	 572.0	 572.0	 0.0	 0.0	 1	 -12.2210678634	 12.2210678634;
	147	 741	 0.0001	 0.001	 0.16846	 572.0	 572.0	 572.0	 0.0	 0.0	 1	 -12.2210678634	 12.2210678634;
	148	 431	 0.00038	 0.00457	 0.01257	 782.0	 782.0	 782.0	 0.0	 0.0	 1	 -12.2210678634	 12.2210678634;
	148	 788	 0.00103	 0.01035	 0.0323	 782.0	 782.0	 782.0	 0.0	 0.0	 1	 -12.2210678634	 12.2210678634;
	150	 172	 0.0054	 0.01484	 0.0019	 128.0	 128.0	 128.0	 0.0	 0.0	 1	 -12.2210678634	 12.2210678634;
	150	 362	 0.00792	 0.0498	 0.01075	 282.0	 306.0	 306.0	 0.0	 0.0	 1	 -12.2210678634	 12.2210678634;
	150	 563	 0.00538	 0.01478	 0.00189	 128.0	 128.0	 128.0	 0.0	 0.0	 1	 -12.2210678634	 12.2210678634;
	151	 269	 0.00224	 0.01661	 0.06507	 1080.0	 1080.0	 1080.0	 0.0	 0.0	 1	 -12.2210678634	 12.2210678634;
	151	 382	 0.00127	 0.00944	 0.03667	 940.0	 1020.0	 1020.0	 0.0	 0.0	 1	 -12.2210678634	 12.2210678634;
	152	 594	 0.00167	 0.01268	 0.04823	 829.0	 829.0	 829.0	 0.0	 0.0	 1	 -12.2210678634	 12.2210678634;
	152	 717	 0.00156	 0.01233	 0.04704	 782.0	 782.0	 782.0	 0.0	 0.0	 1	 -12.2210678634	 12.2210678634;
	155	 444	 0.00092	 0.00725	 0.0278	 782.0	 782.0	 782.0	 0.0	 0.0	 1	 -12.2210678634	 12.2210678634;
	155	 455	 0.00106	 0.00848	 0.0312	 782.0	 782.0	 782.0	 0.0	 0.0	 1	 -12.2210678634	 12.2210678634;
	156	 165	 0.00036	 0.00881	 0.6758	 2702.0	 2702.0	 2702.0	 0.0	 0.0	 1	 -12.2210678634	 12.2210678634;
	156	 219	 0.00059	 0.01322	 1.20351	 2806.0	 3014.0	 3014.0	 0.0	 0.0	 1	 -12.2210678634	 12.2210678634;
	156	 772	 0.00013	 0.00315	 0.23877	 2702.0	 2702.0	 2702.0	 0.0	 0.0	 1	 -12.2210678634	 12.2210678634;
	164	 172	 0.0111	 0.03048	 0.00389	 128.0	 128.0	 128.0	 0.0	 0.0	 1	 -12.2210678634	 12.2210678634;
...